/*--------------------------------*- C++ -*----------------------------------*\
  =========                 |
  \\      /  F ield         | OpenFOAM: The Open Source CFD Toolbox
   \\    /   O peration     | Website:  https://openfoam.org
    \\  /    A nd           | Version:  7
     \\/     M anipulation  |
\*---------------------------------------------------------------------------*/
FoamFile
{
    version     2.0;
    format      ascii;
    class       dictionary;
    location    "system";
    object      fvSolution;
}
// * * * * * * * * * * * * * * * * * * * * * * * * * * * * * * * * * * * * * //

solvers
{
    T
    {
        solver          PCG;
        preconditioner  DIC;
        tolerance       1e-8;
        relTol          0.1;
    }
    
 
    TFinal
    {
        $T;
        tolerance       1e-6;
        relTol          0;
    }
    
    
}

SIMPLE
{
    nNonOrthogonalCorrectors 0;
}


relaxationFactors
{
    equations
    {
        T                0.7;
    }
}

// ************************************************************************* //
