/*--------------------------------*- C++ -*----------------------------------*\
  =========                 |
  \\      /  F ield         | OpenFOAM: The Open Source CFD Toolbox
   \\    /   O peration     | Website:  https://openfoam.org
    \\  /    A nd           | Version:  7
     \\/     M anipulation  |
\*---------------------------------------------------------------------------*/
FoamFile
{
    version     2.0;
    format      ascii;
    class       dictionary;
    location    "constant/heater";
    object      fvOptions;
}
// * * * * * * * * * * * * * * * * * * * * * * * * * * * * * * * * * * * * * //

libs ("libfvOptionsUser.so");

options
{
    energySource
    {
        type            scalarCodedSource;
        active          yes;
        name            sourceTime;
        
        scalarCodedSourceCoeffs
        {
            selectionMode   all;
            fields          (T);

            codeInclude
            #{
            #};

            codeCorrect
            #{
                Pout<< "**codeCorrect**" << endl;
            #};

            codeAddSup
            #{
                //const Time& time = mesh().time();
                const scalarField& V = mesh_.V();
                const volScalarField& Tm = mesh_.lookupObject<volScalarField>("T");
                
                const dimensionedScalar Tinf("Tinf",dimTemperature,20);
                volScalarField TinfVol(Tm*0.0);
                TinfVol += Tinf;
                
                scalarField& Sp = eqn.diag();
                Sp += (-25*V);
                scalarField& tempSource = eqn.source();
                tempSource += (-25*TinfVol*V);
             #};

            codeSetValue
            #{
                Pout<< "**codeSetValue**" << endl;
            #};
        }
        sourceTimeCoeffs
        {
            $scalarCodedSourceCoeffs;
        }
    }

}

// ************************************************************************* //
